456c_ligand


 30 32  0  0  0  0  0  0  0  0999 V2000
   -5.6280   28.3627   56.6387 S   0  0  0  0  0  0  0  0  0  0  0  0
   -5.6354   27.3809   57.7758 O   0  0  0  0  0  0  0  0  0  0  0  0
   -6.4385   29.5567   57.0628 O   0  0  0  0  0  0  0  0  0  0  0  0
   -7.6741   26.4046   53.0418 C   0  0  0  0  0  0  0  0  0  0  0  0
   -7.3001   25.6347   54.1489 C   0  0  0  0  0  0  0  0  0  0  0  0
   -6.6751   26.2314   55.2477 C   0  0  0  0  0  0  0  0  0  0  0  0
   -6.4257   27.6108   55.2551 C   0  0  0  0  0  0  0  0  0  0  0  0
   -6.8246   28.3895   54.1600 C   0  0  0  0  0  0  0  0  0  0  0  0
   -7.4486   27.7925   53.0611 C   0  0  0  0  0  0  0  0  0  0  0  0
   -8.3071   25.7709   51.9625 O   0  0  0  0  0  0  0  0  0  0  0  0
   -8.5778   26.3612   50.7193 C   0  0  0  0  0  0  0  0  0  0  0  0
   -9.8314   26.1491   50.1324 C   0  0  0  0  0  0  0  0  0  0  0  0
  -10.1338   26.7089   48.8871 C   0  0  0  0  0  0  0  0  0  0  0  0
   -9.1780   27.4757   48.2126 C   0  0  0  0  0  0  0  0  0  0  0  0
   -7.9164   27.6758   48.7822 C   0  0  0  0  0  0  0  0  0  0  0  0
   -7.6127   27.1169   50.0275 C   0  0  0  0  0  0  0  0  0  0  0  0
   -9.5572   28.1758   46.6497 Cl  0  0  0  0  0  0  0  0  0  0  0  0
   -3.9347   28.9006   56.2260 C   0  0  0  0  0  0  0  0  0  0  0  0
   -3.0151   28.7397   57.4713 C   0  0  0  0  0  0  0  0  0  0  0  0
   -3.1979   29.8780   58.4833 C   0  0  0  0  0  0  0  0  0  0  0  0
   -3.0109   31.1347   57.8655 O   0  0  0  0  0  0  0  0  0  0  0  0
   -4.0514   31.3707   56.9392 C   0  0  0  0  0  0  0  0  0  0  0  0
   -3.9781   30.3869   55.7615 C   0  0  0  0  0  0  0  0  0  0  0  0
   -3.4488   27.9740   55.0646 C   0  0  0  0  0  0  0  0  0  0  0  0
   -2.6324   26.7446   55.4045 C   0  0  0  0  0  0  0  0  0  0  0  0
   -1.4312   26.8221   55.7767 O   0  0  0  0  0  0  0  0  0  0  0  0
   -3.2493   25.4584   55.3063 N   0  0  0  0  0  0  0  0  0  0  0  0
   -2.5510   24.3340   55.5936 O   0  0  0  0  0  0  0  0  0  0  0  0
   -4.1909   25.3895   55.0272 H   0  0  0  0  0  0  0  0  0  0  0  0
   -1.6463   24.5718   55.8501 H   0  0  0  0  0  0  0  0  0  0  0  0
 11 12  2  0  0  0
 12 13  1  0  0  0
 13 14  2  0  0  0
 14 15  1  0  0  0
 15 16  2  0  0  0
 14 17  1  0  0  0
 11 10  1  0  0  0
 10  4  1  0  0  0
  4  5  2  0  0  0
  5  6  1  0  0  0
  6  7  2  0  0  0
  7  8  1  0  0  0
  8  9  2  0  0  0
  7  1  1  0  0  0
  1  2  2  0  0  0
  1  3  2  0  0  0
  1 18  1  0  0  0
 18 19  1  0  0  0
 19 20  1  0  0  0
 20 21  1  0  0  0
 21 22  1  0  0  0
 22 23  1  0  0  0
 18 24  1  0  0  0
 24 25  1  0  0  0
 25 26  2  0  0  0
 25 27  1  0  0  0
 27 28  1  0  0  0
 16 11  1  0  0  0
  9  4  1  0  0  0
 23 18  1  0  0  0
 27 29  1  0  0  0
 28 30  1  0  0  0
M  END
> <minimizedAffinity>
-9.81845

$$$$
456c_ligand


 30 32  0  0  0  0  0  0  0  0999 V2000
   -5.3668   28.3152   56.7520 S   0  0  0  0  0  0  0  0  0  0  0  0
   -5.2631   27.2762   57.8322 O   0  0  0  0  0  0  0  0  0  0  0  0
   -6.0704   29.5098   57.3352 O   0  0  0  0  0  0  0  0  0  0  0  0
   -7.9337   26.6099   53.3665 C   0  0  0  0  0  0  0  0  0  0  0  0
   -7.4679   25.7769   54.3900 C   0  0  0  0  0  0  0  0  0  0  0  0
   -6.6839   26.2964   55.4241 C   0  0  0  0  0  0  0  0  0  0  0  0
   -6.3646   27.6610   55.4510 C   0  0  0  0  0  0  0  0  0  0  0  0
   -6.8532   28.5035   54.4430 C   0  0  0  0  0  0  0  0  0  0  0  0
   -7.6363   27.9837   53.4086 C   0  0  0  0  0  0  0  0  0  0  0  0
   -8.7252   26.0531   52.3513 O   0  0  0  0  0  0  0  0  0  0  0  0
   -8.7116   26.4439   51.0043 C   0  0  0  0  0  0  0  0  0  0  0  0
   -9.8193   26.1388   50.2039 C   0  0  0  0  0  0  0  0  0  0  0  0
   -9.8371   26.4989   48.8528 C   0  0  0  0  0  0  0  0  0  0  0  0
   -8.7394   27.1567   48.2883 C   0  0  0  0  0  0  0  0  0  0  0  0
   -7.6204   27.4473   49.0755 C   0  0  0  0  0  0  0  0  0  0  0  0
   -7.6013   27.0880   50.4267 C   0  0  0  0  0  0  0  0  0  0  0  0
   -8.7614   27.6063   46.5930 Cl  0  0  0  0  0  0  0  0  0  0  0  0
   -3.7224   28.8215   56.1463 C   0  0  0  0  0  0  0  0  0  0  0  0
   -3.4316   28.1331   54.7812 C   0  0  0  0  0  0  0  0  0  0  0  0
   -2.9913   26.6728   54.9455 C   0  0  0  0  0  0  0  0  0  0  0  0
   -1.8824   26.5771   55.8157 O   0  0  0  0  0  0  0  0  0  0  0  0
   -2.2718   26.9349   57.1260 C   0  0  0  0  0  0  0  0  0  0  0  0
   -2.6514   28.4214   57.2044 C   0  0  0  0  0  0  0  0  0  0  0  0
   -3.7749   30.3744   55.9750 C   0  0  0  0  0  0  0  0  0  0  0  0
   -3.1908   31.2491   57.0646 C   0  0  0  0  0  0  0  0  0  0  0  0
   -2.0824   31.8329   56.9304 O   0  0  0  0  0  0  0  0  0  0  0  0
   -3.9260   31.4215   58.2787 N   0  0  0  0  0  0  0  0  0  0  0  0
   -3.4344   32.1890   59.2807 O   0  0  0  0  0  0  0  0  0  0  0  0
   -4.7982   30.9780   58.3876 H   0  0  0  0  0  0  0  0  0  0  0  0
   -2.5737   32.5511   59.0180 H   0  0  0  0  0  0  0  0  0  0  0  0
 11 12  2  0  0  0
 12 13  1  0  0  0
 13 14  2  0  0  0
 14 15  1  0  0  0
 15 16  2  0  0  0
 14 17  1  0  0  0
 11 10  1  0  0  0
 10  4  1  0  0  0
  4  5  2  0  0  0
  5  6  1  0  0  0
  6  7  2  0  0  0
  7  8  1  0  0  0
  8  9  2  0  0  0
  7  1  1  0  0  0
  1  2  2  0  0  0
  1  3  2  0  0  0
  1 18  1  0  0  0
 18 19  1  0  0  0
 19 20  1  0  0  0
 20 21  1  0  0  0
 21 22  1  0  0  0
 22 23  1  0  0  0
 18 24  1  0  0  0
 24 25  1  0  0  0
 25 26  2  0  0  0
 25 27  1  0  0  0
 27 28  1  0  0  0
 16 11  1  0  0  0
  9  4  1  0  0  0
 23 18  1  0  0  0
 27 29  1  0  0  0
 28 30  1  0  0  0
M  END
> <minimizedAffinity>
-8.95267

$$$$
456c_ligand


 30 32  0  0  0  0  0  0  0  0999 V2000
   -5.5921   29.2427   56.5839 S   0  0  0  0  0  0  0  0  0  0  0  0
   -5.9294   28.6320   57.9144 O   0  0  0  0  0  0  0  0  0  0  0  0
   -6.2100   30.6135   56.5423 O   0  0  0  0  0  0  0  0  0  0  0  0
   -7.4945   26.6820   53.3003 C   0  0  0  0  0  0  0  0  0  0  0  0
   -7.0721   26.0964   54.4990 C   0  0  0  0  0  0  0  0  0  0  0  0
   -6.4909   26.8772   55.5022 C   0  0  0  0  0  0  0  0  0  0  0  0
   -6.3346   28.2583   55.3206 C   0  0  0  0  0  0  0  0  0  0  0  0
   -6.7824   28.8526   54.1329 C   0  0  0  0  0  0  0  0  0  0  0  0
   -7.3626   28.0716   53.1295 C   0  0  0  0  0  0  0  0  0  0  0  0
   -8.0813   25.8667   52.3214 O   0  0  0  0  0  0  0  0  0  0  0  0
   -8.4605   26.2844   51.0372 C   0  0  0  0  0  0  0  0  0  0  0  0
   -7.5569   27.0421   50.2819 C   0  0  0  0  0  0  0  0  0  0  0  0
   -7.9039   27.4894   49.0032 C   0  0  0  0  0  0  0  0  0  0  0  0
   -9.1644   27.1923   48.4748 C   0  0  0  0  0  0  0  0  0  0  0  0
  -10.0805   26.4534   49.2303 C   0  0  0  0  0  0  0  0  0  0  0  0
   -9.7350   26.0053   50.5091 C   0  0  0  0  0  0  0  0  0  0  0  0
   -9.5997   27.7553   46.8716 Cl  0  0  0  0  0  0  0  0  0  0  0  0
   -3.7892   29.3879   56.3484 C   0  0  0  0  0  0  0  0  0  0  0  0
   -3.4242   29.0516   54.8733 C   0  0  0  0  0  0  0  0  0  0  0  0
   -3.4011   27.5409   54.6072 C   0  0  0  0  0  0  0  0  0  0  0  0
   -2.5379   26.8842   55.5125 O   0  0  0  0  0  0  0  0  0  0  0  0
   -3.0683   26.9626   56.8198 C   0  0  0  0  0  0  0  0  0  0  0  0
   -3.0735   28.4119   57.3293 C   0  0  0  0  0  0  0  0  0  0  0  0
   -3.4196   30.8704   56.6784 C   0  0  0  0  0  0  0  0  0  0  0  0
   -3.1987   31.8393   55.5356 C   0  0  0  0  0  0  0  0  0  0  0  0
   -2.0492   32.0891   55.0841 O   0  0  0  0  0  0  0  0  0  0  0  0
   -4.3324   32.4828   54.9482 N   0  0  0  0  0  0  0  0  0  0  0  0
   -4.1765   33.3621   53.9298 O   0  0  0  0  0  0  0  0  0  0  0  0
   -5.2352   32.2848   55.2873 H   0  0  0  0  0  0  0  0  0  0  0  0
   -3.2341   33.4454   53.7159 H   0  0  0  0  0  0  0  0  0  0  0  0
 11 12  2  0  0  0
 12 13  1  0  0  0
 13 14  2  0  0  0
 14 15  1  0  0  0
 15 16  2  0  0  0
 14 17  1  0  0  0
 11 10  1  0  0  0
 10  4  1  0  0  0
  4  5  2  0  0  0
  5  6  1  0  0  0
  6  7  2  0  0  0
  7  8  1  0  0  0
  8  9  2  0  0  0
  7  1  1  0  0  0
  1  2  2  0  0  0
  1  3  2  0  0  0
  1 18  1  0  0  0
 18 19  1  0  0  0
 19 20  1  0  0  0
 20 21  1  0  0  0
 21 22  1  0  0  0
 22 23  1  0  0  0
 18 24  1  0  0  0
 24 25  1  0  0  0
 25 26  2  0  0  0
 25 27  1  0  0  0
 27 28  1  0  0  0
 16 11  1  0  0  0
  9  4  1  0  0  0
 23 18  1  0  0  0
 27 29  1  0  0  0
 28 30  1  0  0  0
M  END
> <minimizedAffinity>
-8.72595

$$$$
456c_ligand


 30 32  0  0  0  0  0  0  0  0999 V2000
   -3.9039   31.0873   57.9684 S   0  0  0  0  0  0  0  0  0  0  0  0
   -2.4249   31.2707   57.7793 O   0  0  0  0  0  0  0  0  0  0  0  0
   -4.1360   30.7113   59.4062 O   0  0  0  0  0  0  0  0  0  0  0  0
   -5.2691   27.6207   55.3079 C   0  0  0  0  0  0  0  0  0  0  0  0
   -3.9990   28.1837   55.1404 C   0  0  0  0  0  0  0  0  0  0  0  0
   -3.5811   29.2423   55.9520 C   0  0  0  0  0  0  0  0  0  0  0  0
   -4.4281   29.7442   56.9497 C   0  0  0  0  0  0  0  0  0  0  0  0
   -5.6899   29.1640   57.1390 C   0  0  0  0  0  0  0  0  0  0  0  0
   -6.1080   28.1062   56.3269 C   0  0  0  0  0  0  0  0  0  0  0  0
   -5.6485   26.5540   54.4801 O   0  0  0  0  0  0  0  0  0  0  0  0
   -6.4628   26.6583   53.3428 C   0  0  0  0  0  0  0  0  0  0  0  0
   -7.5309   25.7648   53.1957 C   0  0  0  0  0  0  0  0  0  0  0  0
   -8.3563   25.8278   52.0686 C   0  0  0  0  0  0  0  0  0  0  0  0
   -8.1110   26.7785   51.0725 C   0  0  0  0  0  0  0  0  0  0  0  0
   -7.0342   27.6616   51.2016 C   0  0  0  0  0  0  0  0  0  0  0  0
   -6.2080   27.6000   52.3281 C   0  0  0  0  0  0  0  0  0  0  0  0
   -9.1455   26.8556   49.6581 Cl  0  0  0  0  0  0  0  0  0  0  0  0
   -4.8247   32.6156   57.5897 C   0  0  0  0  0  0  0  0  0  0  0  0
   -5.2847   32.5960   56.1030 C   0  0  0  0  0  0  0  0  0  0  0  0
   -4.1518   32.9638   55.1362 C   0  0  0  0  0  0  0  0  0  0  0  0
   -3.5813   34.2094   55.4811 O   0  0  0  0  0  0  0  0  0  0  0  0
   -2.9110   34.1005   56.7202 C   0  0  0  0  0  0  0  0  0  0  0  0
   -3.9019   33.8401   57.8648 C   0  0  0  0  0  0  0  0  0  0  0  0
   -6.0623   32.6324   58.5444 C   0  0  0  0  0  0  0  0  0  0  0  0
   -7.4364   32.8711   57.9541 C   0  0  0  0  0  0  0  0  0  0  0  0
   -7.8582   34.0285   57.6898 O   0  0  0  0  0  0  0  0  0  0  0  0
   -8.2752   31.7455   57.6825 N   0  0  0  0  0  0  0  0  0  0  0  0
   -9.5140   31.9170   57.1624 O   0  0  0  0  0  0  0  0  0  0  0  0
   -7.9491   30.8368   57.8754 H   0  0  0  0  0  0  0  0  0  0  0  0
   -9.6817   32.8635   57.0320 H   0  0  0  0  0  0  0  0  0  0  0  0
 11 12  2  0  0  0
 12 13  1  0  0  0
 13 14  2  0  0  0
 14 15  1  0  0  0
 15 16  2  0  0  0
 14 17  1  0  0  0
 11 10  1  0  0  0
 10  4  1  0  0  0
  4  5  2  0  0  0
  5  6  1  0  0  0
  6  7  2  0  0  0
  7  8  1  0  0  0
  8  9  2  0  0  0
  7  1  1  0  0  0
  1  2  2  0  0  0
  1  3  2  0  0  0
  1 18  1  0  0  0
 18 19  1  0  0  0
 19 20  1  0  0  0
 20 21  1  0  0  0
 21 22  1  0  0  0
 22 23  1  0  0  0
 18 24  1  0  0  0
 24 25  1  0  0  0
 25 26  2  0  0  0
 25 27  1  0  0  0
 27 28  1  0  0  0
 16 11  1  0  0  0
  9  4  1  0  0  0
 23 18  1  0  0  0
 27 29  1  0  0  0
 28 30  1  0  0  0
M  END
> <minimizedAffinity>
-7.94259

$$$$
456c_ligand


 30 32  0  0  0  0  0  0  0  0999 V2000
   -2.6696   29.8668   57.9870 S   0  0  0  0  0  0  0  0  0  0  0  0
   -1.2392   29.7460   57.5440 O   0  0  0  0  0  0  0  0  0  0  0  0
   -2.7377   29.4400   59.4277 O   0  0  0  0  0  0  0  0  0  0  0  0
   -5.1845   26.9459   55.5167 C   0  0  0  0  0  0  0  0  0  0  0  0
   -5.7411   27.5999   56.6216 C   0  0  0  0  0  0  0  0  0  0  0  0
   -4.9742   28.4918   57.3768 C   0  0  0  0  0  0  0  0  0  0  0  0
   -3.6409   28.7475   57.0278 C   0  0  0  0  0  0  0  0  0  0  0  0
   -3.0888   28.1159   55.9049 C   0  0  0  0  0  0  0  0  0  0  0  0
   -3.8555   27.2235   55.1505 C   0  0  0  0  0  0  0  0  0  0  0  0
   -5.9888   26.0652   54.7787 O   0  0  0  0  0  0  0  0  0  0  0  0
   -6.6033   26.3602   53.5528 C   0  0  0  0  0  0  0  0  0  0  0  0
   -6.1659   27.4789   52.8330 C   0  0  0  0  0  0  0  0  0  0  0  0
   -6.7634   27.8141   51.6139 C   0  0  0  0  0  0  0  0  0  0  0  0
   -7.8134   27.0387   51.1114 C   0  0  0  0  0  0  0  0  0  0  0  0
   -8.2700   25.9314   51.8336 C   0  0  0  0  0  0  0  0  0  0  0  0
   -7.6734   25.5949   53.0527 C   0  0  0  0  0  0  0  0  0  0  0  0
   -8.5638   27.4608   49.5832 Cl  0  0  0  0  0  0  0  0  0  0  0  0
   -3.2773   31.5801   57.8375 C   0  0  0  0  0  0  0  0  0  0  0  0
   -3.7887   31.8307   56.3891 C   0  0  0  0  0  0  0  0  0  0  0  0
   -2.6430   32.0837   55.4007 C   0  0  0  0  0  0  0  0  0  0  0  0
   -1.8203   33.1426   55.8454 O   0  0  0  0  0  0  0  0  0  0  0  0
   -1.1385   32.7558   57.0210 C   0  0  0  0  0  0  0  0  0  0  0  0
   -2.1167   32.5580   58.1889 C   0  0  0  0  0  0  0  0  0  0  0  0
   -4.4484   31.7234   58.8629 C   0  0  0  0  0  0  0  0  0  0  0  0
   -5.6646   32.5372   58.4729 C   0  0  0  0  0  0  0  0  0  0  0  0
   -5.6497   33.7970   58.4609 O   0  0  0  0  0  0  0  0  0  0  0  0
   -6.8626   31.8515   58.1002 N   0  0  0  0  0  0  0  0  0  0  0  0
   -7.9744   32.5428   57.7529 O   0  0  0  0  0  0  0  0  0  0  0  0
   -6.8796   30.8672   58.0959 H   0  0  0  0  0  0  0  0  0  0  0  0
   -7.7939   33.4943   57.8081 H   0  0  0  0  0  0  0  0  0  0  0  0
 11 12  2  0  0  0
 12 13  1  0  0  0
 13 14  2  0  0  0
 14 15  1  0  0  0
 15 16  2  0  0  0
 14 17  1  0  0  0
 11 10  1  0  0  0
 10  4  1  0  0  0
  4  5  2  0  0  0
  5  6  1  0  0  0
  6  7  2  0  0  0
  7  8  1  0  0  0
  8  9  2  0  0  0
  7  1  1  0  0  0
  1  2  2  0  0  0
  1  3  2  0  0  0
  1 18  1  0  0  0
 18 19  1  0  0  0
 19 20  1  0  0  0
 20 21  1  0  0  0
 21 22  1  0  0  0
 22 23  1  0  0  0
 18 24  1  0  0  0
 24 25  1  0  0  0
 25 26  2  0  0  0
 25 27  1  0  0  0
 27 28  1  0  0  0
 16 11  1  0  0  0
  9  4  1  0  0  0
 23 18  1  0  0  0
 27 29  1  0  0  0
 28 30  1  0  0  0
M  END
> <minimizedAffinity>
-7.59670

$$$$
456c_ligand


 30 32  0  0  0  0  0  0  0  0999 V2000
   -4.8737   31.5123   58.1721 S   0  0  0  0  0  0  0  0  0  0  0  0
   -4.2600   31.0149   59.4499 O   0  0  0  0  0  0  0  0  0  0  0  0
   -6.0884   32.3217   58.5352 O   0  0  0  0  0  0  0  0  0  0  0  0
   -6.2527   27.8854   55.7426 C   0  0  0  0  0  0  0  0  0  0  0  0
   -6.7130   29.1677   55.4232 C   0  0  0  0  0  0  0  0  0  0  0  0
   -6.2929   30.2759   56.1643 C   0  0  0  0  0  0  0  0  0  0  0  0
   -5.3970   30.1140   57.2302 C   0  0  0  0  0  0  0  0  0  0  0  0
   -4.9118   28.8348   57.5349 C   0  0  0  0  0  0  0  0  0  0  0  0
   -5.3328   27.7268   56.7943 C   0  0  0  0  0  0  0  0  0  0  0  0
   -6.6901   26.7998   54.9697 O   0  0  0  0  0  0  0  0  0  0  0  0
   -7.0716   26.8642   53.6214 C   0  0  0  0  0  0  0  0  0  0  0  0
   -8.1933   26.1373   53.2041 C   0  0  0  0  0  0  0  0  0  0  0  0
   -8.5966   26.1644   51.8654 C   0  0  0  0  0  0  0  0  0  0  0  0
   -7.8716   26.9101   50.9301 C   0  0  0  0  0  0  0  0  0  0  0  0
   -6.7382   27.6228   51.3343 C   0  0  0  0  0  0  0  0  0  0  0  0
   -6.3339   27.5968   52.6727 C   0  0  0  0  0  0  0  0  0  0  0  0
   -8.3767   26.9421   49.2506 Cl  0  0  0  0  0  0  0  0  0  0  0  0
   -3.7127   32.5583   57.2313 C   0  0  0  0  0  0  0  0  0  0  0  0
   -3.2895   31.8273   55.9241 C   0  0  0  0  0  0  0  0  0  0  0  0
   -2.2205   30.7557   56.1741 C   0  0  0  0  0  0  0  0  0  0  0  0
   -1.1027   31.3065   56.8396 O   0  0  0  0  0  0  0  0  0  0  0  0
   -1.4692   31.6929   58.1484 C   0  0  0  0  0  0  0  0  0  0  0  0
   -2.4703   32.8578   58.1221 C   0  0  0  0  0  0  0  0  0  0  0  0
   -4.4811   33.8775   56.8954 C   0  0  0  0  0  0  0  0  0  0  0  0
   -5.2218   33.9755   55.5781 C   0  0  0  0  0  0  0  0  0  0  0  0
   -4.6865   34.4586   54.5449 O   0  0  0  0  0  0  0  0  0  0  0  0
   -6.5673   33.4972   55.5063 N   0  0  0  0  0  0  0  0  0  0  0  0
   -7.2669   33.5744   54.3491 O   0  0  0  0  0  0  0  0  0  0  0  0
   -6.9895   33.1078   56.3060 H   0  0  0  0  0  0  0  0  0  0  0  0
   -6.7134   33.9794   53.6631 H   0  0  0  0  0  0  0  0  0  0  0  0
 11 12  2  0  0  0
 12 13  1  0  0  0
 13 14  2  0  0  0
 14 15  1  0  0  0
 15 16  2  0  0  0
 14 17  1  0  0  0
 11 10  1  0  0  0
 10  4  1  0  0  0
  4  5  2  0  0  0
  5  6  1  0  0  0
  6  7  2  0  0  0
  7  8  1  0  0  0
  8  9  2  0  0  0
  7  1  1  0  0  0
  1  2  2  0  0  0
  1  3  2  0  0  0
  1 18  1  0  0  0
 18 19  1  0  0  0
 19 20  1  0  0  0
 20 21  1  0  0  0
 21 22  1  0  0  0
 22 23  1  0  0  0
 18 24  1  0  0  0
 24 25  1  0  0  0
 25 26  2  0  0  0
 25 27  1  0  0  0
 27 28  1  0  0  0
 16 11  1  0  0  0
  9  4  1  0  0  0
 23 18  1  0  0  0
 27 29  1  0  0  0
 28 30  1  0  0  0
M  END
> <minimizedAffinity>
-7.52150

$$$$
456c_ligand


 30 32  0  0  0  0  0  0  0  0999 V2000
   -3.1379   29.8599   57.6166 S   0  0  0  0  0  0  0  0  0  0  0  0
   -3.2255   29.4897   59.0700 O   0  0  0  0  0  0  0  0  0  0  0  0
   -3.4314   31.3307   57.5029 O   0  0  0  0  0  0  0  0  0  0  0  0
   -6.3703   27.5563   55.3354 C   0  0  0  0  0  0  0  0  0  0  0  0
   -5.3448   26.8702   55.9955 C   0  0  0  0  0  0  0  0  0  0  0  0
   -4.3572   27.5724   56.6922 C   0  0  0  0  0  0  0  0  0  0  0  0
   -4.3904   28.9728   56.7446 C   0  0  0  0  0  0  0  0  0  0  0  0
   -5.4320   29.6620   56.1086 C   0  0  0  0  0  0  0  0  0  0  0  0
   -6.4189   28.9597   55.4113 C   0  0  0  0  0  0  0  0  0  0  0  0
   -7.3479   26.8160   54.6548 O   0  0  0  0  0  0  0  0  0  0  0  0
   -7.5510   26.8215   53.2669 C   0  0  0  0  0  0  0  0  0  0  0  0
   -6.7176   27.6141   52.4681 C   0  0  0  0  0  0  0  0  0  0  0  0
   -6.8979   27.6573   51.0821 C   0  0  0  0  0  0  0  0  0  0  0  0
   -7.9233   26.9166   50.4853 C   0  0  0  0  0  0  0  0  0  0  0  0
   -8.7732   26.1382   51.2777 C   0  0  0  0  0  0  0  0  0  0  0  0
   -8.5940   26.0938   52.6638 C   0  0  0  0  0  0  0  0  0  0  0  0
   -8.1503   26.9729   48.7469 Cl  0  0  0  0  0  0  0  0  0  0  0  0
   -1.4797   29.5226   56.9358 C   0  0  0  0  0  0  0  0  0  0  0  0
   -0.4720   30.5879   57.4574 C   0  0  0  0  0  0  0  0  0  0  0  0
   -0.5823   31.9169   56.6991 C   0  0  0  0  0  0  0  0  0  0  0  0
   -0.4422   31.7149   55.3079 O   0  0  0  0  0  0  0  0  0  0  0  0
   -1.5474   30.9835   54.8181 C   0  0  0  0  0  0  0  0  0  0  0  0
   -1.5585   29.5539   55.3804 C   0  0  0  0  0  0  0  0  0  0  0  0
   -1.0781   28.0981   57.4389 C   0  0  0  0  0  0  0  0  0  0  0  0
   -0.4302   27.1360   56.4653 C   0  0  0  0  0  0  0  0  0  0  0  0
    0.7734   27.2529   56.1114 O   0  0  0  0  0  0  0  0  0  0  0  0
   -1.2090   26.0583   55.9394 N   0  0  0  0  0  0  0  0  0  0  0  0
   -0.6690   25.1811   55.0599 O   0  0  0  0  0  0  0  0  0  0  0  0
   -2.1469   25.9529   56.2194 H   0  0  0  0  0  0  0  0  0  0  0  0
    0.2549   25.4219   54.8890 H   0  0  0  0  0  0  0  0  0  0  0  0
 11 12  2  0  0  0
 12 13  1  0  0  0
 13 14  2  0  0  0
 14 15  1  0  0  0
 15 16  2  0  0  0
 14 17  1  0  0  0
 11 10  1  0  0  0
 10  4  1  0  0  0
  4  5  2  0  0  0
  5  6  1  0  0  0
  6  7  2  0  0  0
  7  8  1  0  0  0
  8  9  2  0  0  0
  7  1  1  0  0  0
  1  2  2  0  0  0
  1  3  2  0  0  0
  1 18  1  0  0  0
 18 19  1  0  0  0
 19 20  1  0  0  0
 20 21  1  0  0  0
 21 22  1  0  0  0
 22 23  1  0  0  0
 18 24  1  0  0  0
 24 25  1  0  0  0
 25 26  2  0  0  0
 25 27  1  0  0  0
 27 28  1  0  0  0
 16 11  1  0  0  0
  9  4  1  0  0  0
 23 18  1  0  0  0
 27 29  1  0  0  0
 28 30  1  0  0  0
M  END
> <minimizedAffinity>
-7.48948

$$$$
456c_ligand


 30 32  0  0  0  0  0  0  0  0999 V2000
   -3.9206   31.1665   58.7670 S   0  0  0  0  0  0  0  0  0  0  0  0
   -3.4688   30.5756   60.0722 O   0  0  0  0  0  0  0  0  0  0  0  0
   -4.9460   32.2227   59.0760 O   0  0  0  0  0  0  0  0  0  0  0  0
   -5.9552   27.8589   56.3424 C   0  0  0  0  0  0  0  0  0  0  0  0
   -6.5385   29.1274   56.4378 C   0  0  0  0  0  0  0  0  0  0  0  0
   -5.9183   30.1380   57.1779 C   0  0  0  0  0  0  0  0  0  0  0  0
   -4.6990   29.8929   57.8246 C   0  0  0  0  0  0  0  0  0  0  0  0
   -4.0978   28.6322   57.7077 C   0  0  0  0  0  0  0  0  0  0  0  0
   -4.7185   27.6215   56.9684 C   0  0  0  0  0  0  0  0  0  0  0  0
   -6.6034   26.8739   55.5830 O   0  0  0  0  0  0  0  0  0  0  0  0
   -6.8909   26.9629   54.2130 C   0  0  0  0  0  0  0  0  0  0  0  0
   -8.0437   26.3351   53.7253 C   0  0  0  0  0  0  0  0  0  0  0  0
   -8.3567   26.3890   52.3634 C   0  0  0  0  0  0  0  0  0  0  0  0
   -7.5104   27.0617   51.4759 C   0  0  0  0  0  0  0  0  0  0  0  0
   -6.3464   27.6743   51.9513 C   0  0  0  0  0  0  0  0  0  0  0  0
   -6.0323   27.6214   53.3129 C   0  0  0  0  0  0  0  0  0  0  0  0
   -7.9025   27.1273   49.7675 Cl  0  0  0  0  0  0  0  0  0  0  0  0
   -2.5334   31.9229   57.8555 C   0  0  0  0  0  0  0  0  0  0  0  0
   -1.1843   31.3732   58.4033 C   0  0  0  0  0  0  0  0  0  0  0  0
   -0.7701   32.0463   59.7182 C   0  0  0  0  0  0  0  0  0  0  0  0
   -0.7317   33.4511   59.5733 O   0  0  0  0  0  0  0  0  0  0  0  0
   -2.0393   33.9456   59.3680 C   0  0  0  0  0  0  0  0  0  0  0  0
   -2.6062   33.4700   58.0218 C   0  0  0  0  0  0  0  0  0  0  0  0
   -2.7193   31.5201   56.3566 C   0  0  0  0  0  0  0  0  0  0  0  0
   -3.4412   32.4745   55.4285 C   0  0  0  0  0  0  0  0  0  0  0  0
   -4.6346   32.8260   55.6280 O   0  0  0  0  0  0  0  0  0  0  0  0
   -2.7416   32.9967   54.2962 N   0  0  0  0  0  0  0  0  0  0  0  0
   -3.3543   33.8464   53.4375 O   0  0  0  0  0  0  0  0  0  0  0  0
   -1.8053   32.7361   54.1390 H   0  0  0  0  0  0  0  0  0  0  0  0
   -4.2659   34.0009   53.7309 H   0  0  0  0  0  0  0  0  0  0  0  0
 11 12  2  0  0  0
 12 13  1  0  0  0
 13 14  2  0  0  0
 14 15  1  0  0  0
 15 16  2  0  0  0
 14 17  1  0  0  0
 11 10  1  0  0  0
 10  4  1  0  0  0
  4  5  2  0  0  0
  5  6  1  0  0  0
  6  7  2  0  0  0
  7  8  1  0  0  0
  8  9  2  0  0  0
  7  1  1  0  0  0
  1  2  2  0  0  0
  1  3  2  0  0  0
  1 18  1  0  0  0
 18 19  1  0  0  0
 19 20  1  0  0  0
 20 21  1  0  0  0
 21 22  1  0  0  0
 22 23  1  0  0  0
 18 24  1  0  0  0
 24 25  1  0  0  0
 25 26  2  0  0  0
 25 27  1  0  0  0
 27 28  1  0  0  0
 16 11  1  0  0  0
  9  4  1  0  0  0
 23 18  1  0  0  0
 27 29  1  0  0  0
 28 30  1  0  0  0
M  END
> <minimizedAffinity>
-7.48758

$$$$
456c_ligand


 30 32  0  0  0  0  0  0  0  0999 V2000
   -3.7282   30.9369   57.9242 S   0  0  0  0  0  0  0  0  0  0  0  0
   -2.2275   30.8760   57.9606 O   0  0  0  0  0  0  0  0  0  0  0  0
   -4.2268   30.7225   59.3269 O   0  0  0  0  0  0  0  0  0  0  0  0
   -5.2405   27.5096   55.2927 C   0  0  0  0  0  0  0  0  0  0  0  0
   -3.9221   27.9636   55.1748 C   0  0  0  0  0  0  0  0  0  0  0  0
   -3.4593   29.0101   55.9776 C   0  0  0  0  0  0  0  0  0  0  0  0
   -4.3100   29.6091   56.9169 C   0  0  0  0  0  0  0  0  0  0  0  0
   -5.6226   29.1378   57.0575 C   0  0  0  0  0  0  0  0  0  0  0  0
   -6.0855   28.0921   56.2541 C   0  0  0  0  0  0  0  0  0  0  0  0
   -5.6650   26.4513   54.4759 O   0  0  0  0  0  0  0  0  0  0  0  0
   -6.4781   26.5778   53.3400 C   0  0  0  0  0  0  0  0  0  0  0  0
   -7.5011   25.6433   53.1375 C   0  0  0  0  0  0  0  0  0  0  0  0
   -8.3235   25.7273   52.0096 C   0  0  0  0  0  0  0  0  0  0  0  0
   -8.1199   26.7411   51.0677 C   0  0  0  0  0  0  0  0  0  0  0  0
   -7.0875   27.6666   51.2517 C   0  0  0  0  0  0  0  0  0  0  0  0
   -6.2645   27.5839   52.3792 C   0  0  0  0  0  0  0  0  0  0  0  0
   -9.1504   26.8448   49.6521 Cl  0  0  0  0  0  0  0  0  0  0  0  0
   -4.3209   32.5507   57.3147 C   0  0  0  0  0  0  0  0  0  0  0  0
   -3.1978   33.6162   57.4744 C   0  0  0  0  0  0  0  0  0  0  0  0
   -3.0821   34.1315   58.9148 C   0  0  0  0  0  0  0  0  0  0  0  0
   -4.3247   34.6219   59.3745 O   0  0  0  0  0  0  0  0  0  0  0  0
   -5.2427   33.5549   59.4977 C   0  0  0  0  0  0  0  0  0  0  0  0
   -5.5876   32.9597   58.1241 C   0  0  0  0  0  0  0  0  0  0  0  0
   -4.6725   32.3495   55.8050 C   0  0  0  0  0  0  0  0  0  0  0  0
   -4.3299   33.4501   54.8228 C   0  0  0  0  0  0  0  0  0  0  0  0
   -4.9689   34.5353   54.7857 O   0  0  0  0  0  0  0  0  0  0  0  0
   -3.2423   33.2512   53.9162 N   0  0  0  0  0  0  0  0  0  0  0  0
   -2.9093   34.2077   53.0168 O   0  0  0  0  0  0  0  0  0  0  0  0
   -2.7304   32.4108   53.9459 H   0  0  0  0  0  0  0  0  0  0  0  0
   -3.5052   34.9666   53.1163 H   0  0  0  0  0  0  0  0  0  0  0  0
 11 12  2  0  0  0
 12 13  1  0  0  0
 13 14  2  0  0  0
 14 15  1  0  0  0
 15 16  2  0  0  0
 14 17  1  0  0  0
 11 10  1  0  0  0
 10  4  1  0  0  0
  4  5  2  0  0  0
  5  6  1  0  0  0
  6  7  2  0  0  0
  7  8  1  0  0  0
  8  9  2  0  0  0
  7  1  1  0  0  0
  1  2  2  0  0  0
  1  3  2  0  0  0
  1 18  1  0  0  0
 18 19  1  0  0  0
 19 20  1  0  0  0
 20 21  1  0  0  0
 21 22  1  0  0  0
 22 23  1  0  0  0
 18 24  1  0  0  0
 24 25  1  0  0  0
 25 26  2  0  0  0
 25 27  1  0  0  0
 27 28  1  0  0  0
 16 11  1  0  0  0
  9  4  1  0  0  0
 23 18  1  0  0  0
 27 29  1  0  0  0
 28 30  1  0  0  0
M  END
> <minimizedAffinity>
-7.41150

$$$$
456c_ligand


 30 32  0  0  0  0  0  0  0  0999 V2000
   -3.1972   30.2642   58.5424 S   0  0  0  0  0  0  0  0  0  0  0  0
   -2.1951   29.5004   59.3605 O   0  0  0  0  0  0  0  0  0  0  0  0
   -4.1587   30.9193   59.4957 O   0  0  0  0  0  0  0  0  0  0  0  0
   -5.5300   27.2617   55.9925 C   0  0  0  0  0  0  0  0  0  0  0  0
   -6.1960   28.3082   56.6403 C   0  0  0  0  0  0  0  0  0  0  0  0
   -5.4849   29.2254   57.4193 C   0  0  0  0  0  0  0  0  0  0  0  0
   -4.0940   29.1113   57.5511 C   0  0  0  0  0  0  0  0  0  0  0  0
   -3.4202   28.0812   56.8807 C   0  0  0  0  0  0  0  0  0  0  0  0
   -4.1315   27.1636   56.1026 C   0  0  0  0  0  0  0  0  0  0  0  0
   -6.2772   26.3670   55.2126 O   0  0  0  0  0  0  0  0  0  0  0  0
   -6.6918   26.5917   53.8915 C   0  0  0  0  0  0  0  0  0  0  0  0
   -7.7271   25.8073   53.3686 C   0  0  0  0  0  0  0  0  0  0  0  0
   -8.1586   25.9914   52.0512 C   0  0  0  0  0  0  0  0  0  0  0  0
   -7.5476   26.9547   51.2418 C   0  0  0  0  0  0  0  0  0  0  0  0
   -6.4992   27.7287   51.7496 C   0  0  0  0  0  0  0  0  0  0  0  0
   -6.0668   27.5458   53.0668 C   0  0  0  0  0  0  0  0  0  0  0  0
   -8.0878   27.1838   49.5888 Cl  0  0  0  0  0  0  0  0  0  0  0  0
   -2.3951   31.5452   57.5214 C   0  0  0  0  0  0  0  0  0  0  0  0
   -2.5932   32.9412   58.1804 C   0  0  0  0  0  0  0  0  0  0  0  0
   -3.9905   33.5177   57.9186 C   0  0  0  0  0  0  0  0  0  0  0  0
   -4.2654   33.5598   56.5335 O   0  0  0  0  0  0  0  0  0  0  0  0
   -4.3706   32.2447   56.0276 C   0  0  0  0  0  0  0  0  0  0  0  0
   -3.0200   31.5158   56.0948 C   0  0  0  0  0  0  0  0  0  0  0  0
   -0.8768   31.1777   57.4659 C   0  0  0  0  0  0  0  0  0  0  0  0
   -0.4388   30.0131   56.6025 C   0  0  0  0  0  0  0  0  0  0  0  0
   -0.4328   30.0794   55.3443 O   0  0  0  0  0  0  0  0  0  0  0  0
   -0.0124   28.8055   57.2382 N   0  0  0  0  0  0  0  0  0  0  0  0
    0.3790   27.7384   56.5015 O   0  0  0  0  0  0  0  0  0  0  0  0
   -0.0033   28.7490   58.2210 H   0  0  0  0  0  0  0  0  0  0  0  0
    0.3121   27.9545   55.5583 H   0  0  0  0  0  0  0  0  0  0  0  0
 11 12  2  0  0  0
 12 13  1  0  0  0
 13 14  2  0  0  0
 14 15  1  0  0  0
 15 16  2  0  0  0
 14 17  1  0  0  0
 11 10  1  0  0  0
 10  4  1  0  0  0
  4  5  2  0  0  0
  5  6  1  0  0  0
  6  7  2  0  0  0
  7  8  1  0  0  0
  8  9  2  0  0  0
  7  1  1  0  0  0
  1  2  2  0  0  0
  1  3  2  0  0  0
  1 18  1  0  0  0
 18 19  1  0  0  0
 19 20  1  0  0  0
 20 21  1  0  0  0
 21 22  1  0  0  0
 22 23  1  0  0  0
 18 24  1  0  0  0
 24 25  1  0  0  0
 25 26  2  0  0  0
 25 27  1  0  0  0
 27 28  1  0  0  0
 16 11  1  0  0  0
  9  4  1  0  0  0
 23 18  1  0  0  0
 27 29  1  0  0  0
 28 30  1  0  0  0
M  END
> <minimizedAffinity>
-7.40267

$$$$
456c_ligand


 30 32  0  0  0  0  0  0  0  0999 V2000
   -1.8456   29.5100   57.9199 S   0  0  0  0  0  0  0  0  0  0  0  0
   -0.5322   28.9485   57.4544 O   0  0  0  0  0  0  0  0  0  0  0  0
   -1.9371   29.2839   59.4041 O   0  0  0  0  0  0  0  0  0  0  0  0
   -5.2083   27.1418   55.9094 C   0  0  0  0  0  0  0  0  0  0  0  0
   -5.4985   28.0599   56.9248 C   0  0  0  0  0  0  0  0  0  0  0  0
   -4.4726   28.7834   57.5396 C   0  0  0  0  0  0  0  0  0  0  0  0
   -3.1421   28.6031   57.1371 C   0  0  0  0  0  0  0  0  0  0  0  0
   -2.8509   27.7053   56.1009 C   0  0  0  0  0  0  0  0  0  0  0  0
   -3.8766   26.9812   55.4870 C   0  0  0  0  0  0  0  0  0  0  0  0
   -6.2660   26.4416   55.3107 O   0  0  0  0  0  0  0  0  0  0  0  0
   -6.6884   26.5896   53.9814 C   0  0  0  0  0  0  0  0  0  0  0  0
   -6.1578   27.6378   53.2195 C   0  0  0  0  0  0  0  0  0  0  0  0
   -6.5649   27.8268   51.8951 C   0  0  0  0  0  0  0  0  0  0  0  0
   -7.5172   26.9748   51.3262 C   0  0  0  0  0  0  0  0  0  0  0  0
   -8.0674   25.9377   52.0864 C   0  0  0  0  0  0  0  0  0  0  0  0
   -7.6611   25.7473   53.4108 C   0  0  0  0  0  0  0  0  0  0  0  0
   -8.0290   27.2136   49.6656 Cl  0  0  0  0  0  0  0  0  0  0  0  0
   -1.9733   31.2965   57.5743 C   0  0  0  0  0  0  0  0  0  0  0  0
   -0.6053   31.9838   57.8542 C   0  0  0  0  0  0  0  0  0  0  0  0
   -0.3685   32.2259   59.3505 C   0  0  0  0  0  0  0  0  0  0  0  0
   -1.4365   32.9575   59.9164 O   0  0  0  0  0  0  0  0  0  0  0  0
   -2.6103   32.1710   59.9094 C   0  0  0  0  0  0  0  0  0  0  0  0
   -3.0898   31.9045   58.4745 C   0  0  0  0  0  0  0  0  0  0  0  0
   -2.3513   31.4270   56.0632 C   0  0  0  0  0  0  0  0  0  0  0  0
   -1.2488   31.6676   55.0531 C   0  0  0  0  0  0  0  0  0  0  0  0
   -1.0643   32.7947   54.5212 O   0  0  0  0  0  0  0  0  0  0  0  0
   -0.3880   30.5819   54.7003 N   0  0  0  0  0  0  0  0  0  0  0  0
    0.6046   30.7538   53.7948 O   0  0  0  0  0  0  0  0  0  0  0  0
   -0.5180   29.7007   55.1195 H   0  0  0  0  0  0  0  0  0  0  0  0
    0.5987   31.6708   53.4788 H   0  0  0  0  0  0  0  0  0  0  0  0
 11 12  2  0  0  0
 12 13  1  0  0  0
 13 14  2  0  0  0
 14 15  1  0  0  0
 15 16  2  0  0  0
 14 17  1  0  0  0
 11 10  1  0  0  0
 10  4  1  0  0  0
  4  5  2  0  0  0
  5  6  1  0  0  0
  6  7  2  0  0  0
  7  8  1  0  0  0
  8  9  2  0  0  0
  7  1  1  0  0  0
  1  2  2  0  0  0
  1  3  2  0  0  0
  1 18  1  0  0  0
 18 19  1  0  0  0
 19 20  1  0  0  0
 20 21  1  0  0  0
 21 22  1  0  0  0
 22 23  1  0  0  0
 18 24  1  0  0  0
 24 25  1  0  0  0
 25 26  2  0  0  0
 25 27  1  0  0  0
 27 28  1  0  0  0
 16 11  1  0  0  0
  9  4  1  0  0  0
 23 18  1  0  0  0
 27 29  1  0  0  0
 28 30  1  0  0  0
M  END
> <minimizedAffinity>
-7.29233

$$$$
456c_ligand


 30 32  0  0  0  0  0  0  0  0999 V2000
   -2.6624   31.0056   56.7326 S   0  0  0  0  0  0  0  0  0  0  0  0
   -3.4144   32.2772   56.4594 O   0  0  0  0  0  0  0  0  0  0  0  0
   -1.3356   31.1015   56.0306 O   0  0  0  0  0  0  0  0  0  0  0  0
   -5.0152   27.5178   54.9275 C   0  0  0  0  0  0  0  0  0  0  0  0
   -5.6633   28.4771   55.7136 C   0  0  0  0  0  0  0  0  0  0  0  0
   -4.9460   29.5424   56.2654 C   0  0  0  0  0  0  0  0  0  0  0  0
   -3.5700   29.6655   56.0279 C   0  0  0  0  0  0  0  0  0  0  0  0
   -2.9231   28.7222   55.2177 C   0  0  0  0  0  0  0  0  0  0  0  0
   -3.6403   27.6566   54.6668 C   0  0  0  0  0  0  0  0  0  0  0  0
   -5.7710   26.4688   54.3840 O   0  0  0  0  0  0  0  0  0  0  0  0
   -6.5649   26.5526   53.2307 C   0  0  0  0  0  0  0  0  0  0  0  0
   -6.2921   27.5606   52.2978 C   0  0  0  0  0  0  0  0  0  0  0  0
   -7.0704   27.6856   51.1427 C   0  0  0  0  0  0  0  0  0  0  0  0
   -8.1374   26.8096   50.9184 C   0  0  0  0  0  0  0  0  0  0  0  0
   -8.4297   25.8126   51.8548 C   0  0  0  0  0  0  0  0  0  0  0  0
   -7.6521   25.6862   53.0101 C   0  0  0  0  0  0  0  0  0  0  0  0
   -9.1146   26.9682   49.4704 Cl  0  0  0  0  0  0  0  0  0  0  0  0
   -2.3823   30.7606   58.5182 C   0  0  0  0  0  0  0  0  0  0  0  0
   -3.5859   31.3339   59.3214 C   0  0  0  0  0  0  0  0  0  0  0  0
   -3.5236   32.8607   59.4567 C   0  0  0  0  0  0  0  0  0  0  0  0
   -2.2919   33.2657   60.0178 O   0  0  0  0  0  0  0  0  0  0  0  0
   -1.2418   32.9896   59.1137 C   0  0  0  0  0  0  0  0  0  0  0  0
   -1.0591   31.4762   58.9228 C   0  0  0  0  0  0  0  0  0  0  0  0
   -2.2640   29.2175   58.7381 C   0  0  0  0  0  0  0  0  0  0  0  0
   -0.8952   28.5732   58.6686 C   0  0  0  0  0  0  0  0  0  0  0  0
   -0.3171   28.3492   57.5717 O   0  0  0  0  0  0  0  0  0  0  0  0
   -0.2384   28.2162   59.8874 N   0  0  0  0  0  0  0  0  0  0  0  0
    0.9827   27.6305   59.8679 O   0  0  0  0  0  0  0  0  0  0  0  0
   -0.6781   28.3980   60.7493 H   0  0  0  0  0  0  0  0  0  0  0  0
    1.2745   27.5217   58.9493 H   0  0  0  0  0  0  0  0  0  0  0  0
 11 12  2  0  0  0
 12 13  1  0  0  0
 13 14  2  0  0  0
 14 15  1  0  0  0
 15 16  2  0  0  0
 14 17  1  0  0  0
 11 10  1  0  0  0
 10  4  1  0  0  0
  4  5  2  0  0  0
  5  6  1  0  0  0
  6  7  2  0  0  0
  7  8  1  0  0  0
  8  9  2  0  0  0
  7  1  1  0  0  0
  1  2  2  0  0  0
  1  3  2  0  0  0
  1 18  1  0  0  0
 18 19  1  0  0  0
 19 20  1  0  0  0
 20 21  1  0  0  0
 21 22  1  0  0  0
 22 23  1  0  0  0
 18 24  1  0  0  0
 24 25  1  0  0  0
 25 26  2  0  0  0
 25 27  1  0  0  0
 27 28  1  0  0  0
 16 11  1  0  0  0
  9  4  1  0  0  0
 23 18  1  0  0  0
 27 29  1  0  0  0
 28 30  1  0  0  0
M  END
> <minimizedAffinity>
-7.20729

$$$$
456c_ligand


 30 32  0  0  0  0  0  0  0  0999 V2000
   -3.6932   30.8379   58.3395 S   0  0  0  0  0  0  0  0  0  0  0  0
   -2.6210   30.2760   59.2291 O   0  0  0  0  0  0  0  0  0  0  0  0
   -4.8063   31.3305   59.2232 O   0  0  0  0  0  0  0  0  0  0  0  0
   -5.3169   27.4281   55.7519 C   0  0  0  0  0  0  0  0  0  0  0  0
   -6.1933   28.2607   56.4568 C   0  0  0  0  0  0  0  0  0  0  0  0
   -5.6988   29.3020   57.2473 C   0  0  0  0  0  0  0  0  0  0  0  0
   -4.3182   29.5287   57.3337 C   0  0  0  0  0  0  0  0  0  0  0  0
   -3.4390   28.7145   56.6065 C   0  0  0  0  0  0  0  0  0  0  0  0
   -3.9336   27.6728   55.8169 C   0  0  0  0  0  0  0  0  0  0  0  0
   -5.8519   26.3998   54.9622 O   0  0  0  0  0  0  0  0  0  0  0  0
   -6.5409   26.5788   53.7536 C   0  0  0  0  0  0  0  0  0  0  0  0
   -6.0375   27.4942   52.8213 C   0  0  0  0  0  0  0  0  0  0  0  0
   -6.7040   27.7110   51.6112 C   0  0  0  0  0  0  0  0  0  0  0  0
   -7.8881   27.0218   51.3300 C   0  0  0  0  0  0  0  0  0  0  0  0
   -8.4090   26.1207   52.2642 C   0  0  0  0  0  0  0  0  0  0  0  0
   -7.7435   25.9027   53.4746 C   0  0  0  0  0  0  0  0  0  0  0  0
   -8.7248   27.2957   49.8128 Cl  0  0  0  0  0  0  0  0  0  0  0  0
   -3.0705   32.2221   57.3280 C   0  0  0  0  0  0  0  0  0  0  0  0
   -3.2781   33.5633   58.0899 C   0  0  0  0  0  0  0  0  0  0  0  0
   -4.7244   34.0670   58.0022 C   0  0  0  0  0  0  0  0  0  0  0  0
   -5.1396   34.1714   56.6559 O   0  0  0  0  0  0  0  0  0  0  0  0
   -5.2224   32.8834   56.0808 C   0  0  0  0  0  0  0  0  0  0  0  0
   -3.8336   32.2361   55.9700 C   0  0  0  0  0  0  0  0  0  0  0  0
   -1.5475   31.9523   57.1018 C   0  0  0  0  0  0  0  0  0  0  0  0
   -0.5400   32.6964   57.9532 C   0  0  0  0  0  0  0  0  0  0  0  0
    0.0923   33.6962   57.5197 O   0  0  0  0  0  0  0  0  0  0  0  0
   -0.3073   32.2525   59.2923 N   0  0  0  0  0  0  0  0  0  0  0  0
    0.5916   32.8857   60.0833 O   0  0  0  0  0  0  0  0  0  0  0  0
   -0.8053   31.4790   59.6429 H   0  0  0  0  0  0  0  0  0  0  0  0
    0.9928   33.6202   59.5930 H   0  0  0  0  0  0  0  0  0  0  0  0
 11 12  2  0  0  0
 12 13  1  0  0  0
 13 14  2  0  0  0
 14 15  1  0  0  0
 15 16  2  0  0  0
 14 17  1  0  0  0
 11 10  1  0  0  0
 10  4  1  0  0  0
  4  5  2  0  0  0
  5  6  1  0  0  0
  6  7  2  0  0  0
  7  8  1  0  0  0
  8  9  2  0  0  0
  7  1  1  0  0  0
  1  2  2  0  0  0
  1  3  2  0  0  0
  1 18  1  0  0  0
 18 19  1  0  0  0
 19 20  1  0  0  0
 20 21  1  0  0  0
 21 22  1  0  0  0
 22 23  1  0  0  0
 18 24  1  0  0  0
 24 25  1  0  0  0
 25 26  2  0  0  0
 25 27  1  0  0  0
 27 28  1  0  0  0
 16 11  1  0  0  0
  9  4  1  0  0  0
 23 18  1  0  0  0
 27 29  1  0  0  0
 28 30  1  0  0  0
M  END
> <minimizedAffinity>
-7.03897

$$$$
456c_ligand


 30 32  0  0  0  0  0  0  0  0999 V2000
   -1.5130   28.6087   57.0488 S   0  0  0  0  0  0  0  0  0  0  0  0
   -0.6344   29.1168   55.9412 O   0  0  0  0  0  0  0  0  0  0  0  0
   -0.9876   27.2623   57.4655 O   0  0  0  0  0  0  0  0  0  0  0  0
   -5.7319   28.0551   55.3596 C   0  0  0  0  0  0  0  0  0  0  0  0
   -4.9105   26.9458   55.5899 C   0  0  0  0  0  0  0  0  0  0  0  0
   -3.6221   27.1135   56.1054 C   0  0  0  0  0  0  0  0  0  0  0  0
   -3.1435   28.3962   56.4065 C   0  0  0  0  0  0  0  0  0  0  0  0
   -3.9738   29.5071   56.2038 C   0  0  0  0  0  0  0  0  0  0  0  0
   -5.2616   29.3392   55.6875 C   0  0  0  0  0  0  0  0  0  0  0  0
   -7.0216   27.8452   54.8500 O   0  0  0  0  0  0  0  0  0  0  0  0
   -7.3245   27.4923   53.5267 C   0  0  0  0  0  0  0  0  0  0  0  0
   -8.3726   26.5936   53.2931 C   0  0  0  0  0  0  0  0  0  0  0  0
   -8.6954   26.2062   51.9888 C   0  0  0  0  0  0  0  0  0  0  0  0
   -7.9623   26.7060   50.9075 C   0  0  0  0  0  0  0  0  0  0  0  0
   -6.9008   27.5883   51.1331 C   0  0  0  0  0  0  0  0  0  0  0  0
   -6.5770   27.9768   52.4368 C   0  0  0  0  0  0  0  0  0  0  0  0
   -8.3664   26.2181   49.2718 Cl  0  0  0  0  0  0  0  0  0  0  0  0
   -1.4994   29.7313   58.4864 C   0  0  0  0  0  0  0  0  0  0  0  0
   -1.2053   31.1847   58.0140 C   0  0  0  0  0  0  0  0  0  0  0  0
    0.2854   31.4186   57.7373 C   0  0  0  0  0  0  0  0  0  0  0  0
    1.0655   31.0770   58.8645 O   0  0  0  0  0  0  0  0  0  0  0  0
    1.0037   29.6824   59.0828 C   0  0  0  0  0  0  0  0  0  0  0  0
   -0.4120   29.2481   59.4917 C   0  0  0  0  0  0  0  0  0  0  0  0
   -2.9219   29.6426   59.1282 C   0  0  0  0  0  0  0  0  0  0  0  0
   -3.4348   30.8195   59.9316 C   0  0  0  0  0  0  0  0  0  0  0  0
   -3.0918   31.0116   61.1286 O   0  0  0  0  0  0  0  0  0  0  0  0
   -4.3298   31.7432   59.3070 N   0  0  0  0  0  0  0  0  0  0  0  0
   -4.8175   32.8039   59.9937 O   0  0  0  0  0  0  0  0  0  0  0  0
   -4.5942   31.6069   58.3685 H   0  0  0  0  0  0  0  0  0  0  0  0
   -4.4637   32.7947   60.8969 H   0  0  0  0  0  0  0  0  0  0  0  0
 11 12  2  0  0  0
 12 13  1  0  0  0
 13 14  2  0  0  0
 14 15  1  0  0  0
 15 16  2  0  0  0
 14 17  1  0  0  0
 11 10  1  0  0  0
 10  4  1  0  0  0
  4  5  2  0  0  0
  5  6  1  0  0  0
  6  7  2  0  0  0
  7  8  1  0  0  0
  8  9  2  0  0  0
  7  1  1  0  0  0
  1  2  2  0  0  0
  1  3  2  0  0  0
  1 18  1  0  0  0
 18 19  1  0  0  0
 19 20  1  0  0  0
 20 21  1  0  0  0
 21 22  1  0  0  0
 22 23  1  0  0  0
 18 24  1  0  0  0
 24 25  1  0  0  0
 25 26  2  0  0  0
 25 27  1  0  0  0
 27 28  1  0  0  0
 16 11  1  0  0  0
  9  4  1  0  0  0
 23 18  1  0  0  0
 27 29  1  0  0  0
 28 30  1  0  0  0
M  END
> <minimizedAffinity>
-6.97186

$$$$
456c_ligand


 30 32  0  0  0  0  0  0  0  0999 V2000
  -10.5502   28.5124   45.5358 S   0  0  0  0  0  0  0  0  0  0  0  0
  -10.6849   29.9797   45.8288 O   0  0  0  0  0  0  0  0  0  0  0  0
  -11.9344   27.9593   45.3347 O   0  0  0  0  0  0  0  0  0  0  0  0
   -8.7182   26.4976   49.2158 C   0  0  0  0  0  0  0  0  0  0  0  0
   -9.9218   26.0285   48.6777 C   0  0  0  0  0  0  0  0  0  0  0  0
  -10.4822   26.6430   47.5543 C   0  0  0  0  0  0  0  0  0  0  0  0
   -9.8376   27.7306   46.9490 C   0  0  0  0  0  0  0  0  0  0  0  0
   -8.6175   28.1850   47.4682 C   0  0  0  0  0  0  0  0  0  0  0  0
   -8.0578   27.5711   48.5921 C   0  0  0  0  0  0  0  0  0  0  0  0
   -8.1830   25.8488   50.3383 O   0  0  0  0  0  0  0  0  0  0  0  0
   -7.8247   26.4722   51.5426 C   0  0  0  0  0  0  0  0  0  0  0  0
   -6.9380   27.5553   51.5018 C   0  0  0  0  0  0  0  0  0  0  0  0
   -6.5456   28.1937   52.6825 C   0  0  0  0  0  0  0  0  0  0  0  0
   -7.0282   27.7444   53.9159 C   0  0  0  0  0  0  0  0  0  0  0  0
   -7.8983   26.6505   53.9676 C   0  0  0  0  0  0  0  0  0  0  0  0
   -8.2917   26.0113   52.7878 C   0  0  0  0  0  0  0  0  0  0  0  0
   -6.5341   28.5443   55.3967 Cl  0  0  0  0  0  0  0  0  0  0  0  0
   -9.5592   28.2151   44.0337 C   0  0  0  0  0  0  0  0  0  0  0  0
  -10.4840   28.2386   42.7821 C   0  0  0  0  0  0  0  0  0  0  0  0
  -11.2612   26.9278   42.6053 C   0  0  0  0  0  0  0  0  0  0  0  0
  -10.3818   25.8225   42.5736 O   0  0  0  0  0  0  0  0  0  0  0  0
   -9.7763   25.6580   43.8396 C   0  0  0  0  0  0  0  0  0  0  0  0
   -8.8463   26.8363   44.1660 C   0  0  0  0  0  0  0  0  0  0  0  0
   -8.5114   29.3728   43.9607 C   0  0  0  0  0  0  0  0  0  0  0  0
   -9.0059   30.7968   43.8163 C   0  0  0  0  0  0  0  0  0  0  0  0
   -9.6653   31.1765   42.8120 O   0  0  0  0  0  0  0  0  0  0  0  0
   -8.7206   31.7348   44.8570 N   0  0  0  0  0  0  0  0  0  0  0  0
   -9.1380   33.0198   44.7620 O   0  0  0  0  0  0  0  0  0  0  0  0
   -8.2157   31.4438   45.6505 H   0  0  0  0  0  0  0  0  0  0  0  0
   -9.6169   33.1434   43.9276 H   0  0  0  0  0  0  0  0  0  0  0  0
 11 12  2  0  0  0
 12 13  1  0  0  0
 13 14  2  0  0  0
 14 15  1  0  0  0
 15 16  2  0  0  0
 14 17  1  0  0  0
 11 10  1  0  0  0
 10  4  1  0  0  0
  4  5  2  0  0  0
  5  6  1  0  0  0
  6  7  2  0  0  0
  7  8  1  0  0  0
  8  9  2  0  0  0
  7  1  1  0  0  0
  1  2  2  0  0  0
  1  3  2  0  0  0
  1 18  1  0  0  0
 18 19  1  0  0  0
 19 20  1  0  0  0
 20 21  1  0  0  0
 21 22  1  0  0  0
 22 23  1  0  0  0
 18 24  1  0  0  0
 24 25  1  0  0  0
 25 26  2  0  0  0
 25 27  1  0  0  0
 27 28  1  0  0  0
 16 11  1  0  0  0
  9  4  1  0  0  0
 23 18  1  0  0  0
 27 29  1  0  0  0
 28 30  1  0  0  0
M  END
> <minimizedAffinity>
-6.96403

$$$$
456c_ligand


 30 32  0  0  0  0  0  0  0  0999 V2000
   -5.8950   29.9158   55.6152 S   0  0  0  0  0  0  0  0  0  0  0  0
   -6.9205   29.9405   56.7128 O   0  0  0  0  0  0  0  0  0  0  0  0
   -5.8185   31.3003   55.0322 O   0  0  0  0  0  0  0  0  0  0  0  0
   -7.3610   27.0736   52.3393 C   0  0  0  0  0  0  0  0  0  0  0  0
   -6.0565   27.5792   52.3059 C   0  0  0  0  0  0  0  0  0  0  0  0
   -5.6079   28.4473   53.3055 C   0  0  0  0  0  0  0  0  0  0  0  0
   -6.4587   28.8122   54.3580 C   0  0  0  0  0  0  0  0  0  0  0  0
   -7.7565   28.2852   54.4099 C   0  0  0  0  0  0  0  0  0  0  0  0
   -8.2052   27.4181   53.4099 C   0  0  0  0  0  0  0  0  0  0  0  0
   -7.7711   26.1981   51.3232 O   0  0  0  0  0  0  0  0  0  0  0  0
   -8.3637   26.5815   50.1110 C   0  0  0  0  0  0  0  0  0  0  0  0
   -7.6773   27.4749   49.2795 C   0  0  0  0  0  0  0  0  0  0  0  0
   -8.2415   27.8920   48.0699 C   0  0  0  0  0  0  0  0  0  0  0  0
   -9.5046   27.4277   47.6887 C   0  0  0  0  0  0  0  0  0  0  0  0
  -10.2060   26.5510   48.5228 C   0  0  0  0  0  0  0  0  0  0  0  0
   -9.6430   26.1328   49.7325 C   0  0  0  0  0  0  0  0  0  0  0  0
  -10.2128   27.9529   46.1723 Cl  0  0  0  0  0  0  0  0  0  0  0  0
   -4.2510   29.4350   56.2420 C   0  0  0  0  0  0  0  0  0  0  0  0
   -4.1589   29.7449   57.7644 C   0  0  0  0  0  0  0  0  0  0  0  0
   -3.9005   31.2312   58.0433 C   0  0  0  0  0  0  0  0  0  0  0  0
   -2.7492   31.6785   57.3574 O   0  0  0  0  0  0  0  0  0  0  0  0
   -2.9859   31.6590   55.9646 C   0  0  0  0  0  0  0  0  0  0  0  0
   -3.1620   30.2212   55.4528 C   0  0  0  0  0  0  0  0  0  0  0  0
   -4.1145   27.8987   55.9879 C   0  0  0  0  0  0  0  0  0  0  0  0
   -5.2091   26.9769   56.4835 C   0  0  0  0  0  0  0  0  0  0  0  0
   -5.7414   27.1204   57.6164 O   0  0  0  0  0  0  0  0  0  0  0  0
   -5.6550   25.9167   55.6340 N   0  0  0  0  0  0  0  0  0  0  0  0
   -6.6259   25.0657   56.0434 O   0  0  0  0  0  0  0  0  0  0  0  0
   -5.2524   25.8043   54.7426 H   0  0  0  0  0  0  0  0  0  0  0  0
   -6.9146   25.3101   56.9366 H   0  0  0  0  0  0  0  0  0  0  0  0
 11 12  2  0  0  0
 12 13  1  0  0  0
 13 14  2  0  0  0
 14 15  1  0  0  0
 15 16  2  0  0  0
 14 17  1  0  0  0
 11 10  1  0  0  0
 10  4  1  0  0  0
  4  5  2  0  0  0
  5  6  1  0  0  0
  6  7  2  0  0  0
  7  8  1  0  0  0
  8  9  2  0  0  0
  7  1  1  0  0  0
  1  2  2  0  0  0
  1  3  2  0  0  0
  1 18  1  0  0  0
 18 19  1  0  0  0
 19 20  1  0  0  0
 20 21  1  0  0  0
 21 22  1  0  0  0
 22 23  1  0  0  0
 18 24  1  0  0  0
 24 25  1  0  0  0
 25 26  2  0  0  0
 25 27  1  0  0  0
 27 28  1  0  0  0
 16 11  1  0  0  0
  9  4  1  0  0  0
 23 18  1  0  0  0
 27 29  1  0  0  0
 28 30  1  0  0  0
M  END
> <minimizedAffinity>
-6.95748

$$$$
456c_ligand


 30 32  0  0  0  0  0  0  0  0999 V2000
   -4.4095   31.1090   56.8387 S   0  0  0  0  0  0  0  0  0  0  0  0
   -4.4150   32.0487   55.6666 O   0  0  0  0  0  0  0  0  0  0  0  0
   -4.4654   31.9416   58.0901 O   0  0  0  0  0  0  0  0  0  0  0  0
   -0.4641   28.7870   56.8023 C   0  0  0  0  0  0  0  0  0  0  0  0
   -1.0078   29.2773   55.6097 C   0  0  0  0  0  0  0  0  0  0  0  0
   -2.2125   29.9862   55.6195 C   0  0  0  0  0  0  0  0  0  0  0  0
   -2.8834   30.2217   56.8275 C   0  0  0  0  0  0  0  0  0  0  0  0
   -2.3272   29.7568   58.0271 C   0  0  0  0  0  0  0  0  0  0  0  0
   -1.1232   29.0471   58.0170 C   0  0  0  0  0  0  0  0  0  0  0  0
    0.7510   28.0883   56.7525 O   0  0  0  0  0  0  0  0  0  0  0  0
    0.9764   26.8118   57.2884 C   0  0  0  0  0  0  0  0  0  0  0  0
    1.7430   26.6975   58.4547 C   0  0  0  0  0  0  0  0  0  0  0  0
    2.0018   25.4410   59.0113 C   0  0  0  0  0  0  0  0  0  0  0  0
    1.5055   24.2866   58.3969 C   0  0  0  0  0  0  0  0  0  0  0  0
    0.7561   24.3901   57.2206 C   0  0  0  0  0  0  0  0  0  0  0  0
    0.4962   25.6459   56.6630 C   0  0  0  0  0  0  0  0  0  0  0  0
    1.8323   22.7107   59.0943 Cl  0  0  0  0  0  0  0  0  0  0  0  0
   -5.8419   29.9803   56.8022 C   0  0  0  0  0  0  0  0  0  0  0  0
   -6.2297   29.6728   55.3266 C   0  0  0  0  0  0  0  0  0  0  0  0
   -7.0310   30.8122   54.6837 C   0  0  0  0  0  0  0  0  0  0  0  0
   -8.1692   31.1262   55.4594 O   0  0  0  0  0  0  0  0  0  0  0  0
   -7.7666   31.6852   56.6931 C   0  0  0  0  0  0  0  0  0  0  0  0
   -7.0294   30.6499   57.5559 C   0  0  0  0  0  0  0  0  0  0  0  0
   -5.3919   28.6735   57.5325 C   0  0  0  0  0  0  0  0  0  0  0  0
   -5.3892   27.3702   56.7612 C   0  0  0  0  0  0  0  0  0  0  0  0
   -6.4164   26.6466   56.6683 O   0  0  0  0  0  0  0  0  0  0  0  0
   -4.1841   26.9550   56.1133 N   0  0  0  0  0  0  0  0  0  0  0  0
   -4.1380   25.7920   55.4205 O   0  0  0  0  0  0  0  0  0  0  0  0
   -3.3799   27.5199   56.1713 H   0  0  0  0  0  0  0  0  0  0  0  0
   -5.0045   25.3578   55.4596 H   0  0  0  0  0  0  0  0  0  0  0  0
 11 12  2  0  0  0
 12 13  1  0  0  0
 13 14  2  0  0  0
 14 15  1  0  0  0
 15 16  2  0  0  0
 14 17  1  0  0  0
 11 10  1  0  0  0
 10  4  1  0  0  0
  4  5  2  0  0  0
  5  6  1  0  0  0
  6  7  2  0  0  0
  7  8  1  0  0  0
  8  9  2  0  0  0
  7  1  1  0  0  0
  1  2  2  0  0  0
  1  3  2  0  0  0
  1 18  1  0  0  0
 18 19  1  0  0  0
 19 20  1  0  0  0
 20 21  1  0  0  0
 21 22  1  0  0  0
 22 23  1  0  0  0
 18 24  1  0  0  0
 24 25  1  0  0  0
 25 26  2  0  0  0
 25 27  1  0  0  0
 27 28  1  0  0  0
 16 11  1  0  0  0
  9  4  1  0  0  0
 23 18  1  0  0  0
 27 29  1  0  0  0
 28 30  1  0  0  0
M  END
> <minimizedAffinity>
-6.92934

$$$$
